test/test_files/validation_tests/case300_resqlim.m
function mpc = case300_resqlim
%CASE300_RESQLIM

%% MATPOWER Case Format : Version 2
mpc.version = '2';

%%-----  Power Flow Data  -----%%
%% system MVA base
mpc.baseMVA = 100;

%% bus data
%	bus_i	type	Pd	Qd	Gs	Bs	area	Vm	Va	baseKV	zone	Vmax	Vmin
mpc.bus = [
	1	1	90	49	0	0	1	1.02821257	5.4807301	115	1	1.06	0.94;
	2	1	56	15	0	0	1	1.0350955	7.27295822	115	1	1.06	0.94;
	3	1	20	0	0	0	1	0.996603308	6.1715741	230	1	1.06	0.94;
	4	1	0	0	0	0	1	1.03004508	4.24178648	345	1	1.06	0.94;
	5	1	353	130	0	0	1	1.0188743	4.21437807	115	1	1.06	0.94;
	6	1	120	41	0	0	1	1.03091396	6.52319539	115	1	1.06	0.94;
	7	1	0	0	0	0	1	0.992995317	5.71927685	230	1	1.06	0.94;
	8	1	63	14	0	0	1	1.0148591	1.93574169	115	1	1.06	0.94;
	9	1	96	43	0	0	1	1.00318148	2.38252678	115	1	1.06	0.94;
	10	1	153	33	0	0	1	1.0202294	0.872306151	230	1	1.06	0.94;
	11	1	83	21	0	0	1	1.00548552	1.9922531	115	1	1.06	0.94;
	12	1	0	0	0	0	1	0.997065382	4.74082343	230	1	1.06	0.94;
	13	1	58	10	0	0	1	0.997431611	-1.02955929	115	1	1.06	0.94;
	14	1	160	60	0	0	1	0.998063296	-5.29323399	115	1	1.06	0.94;
	15	1	126.7	23	0	0	1	1.03271804	-9.08066776	115	1	1.06	0.94;
	16	1	0	0	0	0	1	1.02985594	-3.11559123	345	1	1.06	0.94;
	17	1	561	220	0	0	1	1.06360295	-13.6279821	115	1	1.06	0.94;
	19	1	0	0	0	0	1	0.981583678	0.588509615	230	1	1.06	0.94;
	20	1	605	120	0	0	1	1.00069656	-2.94284359	115	1	1.06	0.94;
	21	1	77	1	0	0	1	0.974880504	1.1390316	230	1	1.06	0.94;
	22	1	81	23	0	0	1	0.996016967	-2.45638792	115	1	1.06	0.94;
	23	1	21	7	0	0	1	1.05002919	3.45439642	115	1	1.06	0.94;
	24	1	0	0	0	0	1	1.00553686	5.53784376	230	1	1.06	0.94;
	25	1	45	12	0	0	1	1.02325855	0.955619019	115	1	1.06	0.94;
	26	1	28	9	0	0	1	0.998435806	-2.21830923	115	1	1.06	0.94;
	27	1	69	13	0	0	1	0.97482206	-5.38042987	115	1	1.06	0.94;
	33	1	55	6	0	0	1	1.01927223	-12.5293125	115	1	1.06	0.94;
	34	1	0	0	0	0	1	1.03833403	-8.40311681	345	1	1.06	0.94;
	35	1	0	0	0	0	1	0.974955753	-26.2781541	115	1	1.06	0.94;
	36	1	0	0	0	0	1	1.0001163	-23.1075151	230	1	1.06	0.94;
	37	1	85	32	0	0	1	1.01384029	-11.712044	115	1	1.06	0.94;
	38	1	155	18	0	0	1	1.01481339	-13.0670878	115	1	1.06	0.94;
	39	1	0	0	0	0	1	1.05125438	-6.2695914	345	1	1.06	0.94;
	40	1	46	-21	0	0	1	1.01635684	-13.2932657	115	1	1.06	0.94;
	41	1	86	0	0	0	1	1.02327786	-10.9357314	115	1	1.06	0.94;
	42	1	0	0	0	0	1	1.04211853	-7.90882098	345	1	1.06	0.94;
	43	1	39	9	0	0	1	0.996789974	-17.3289382	115	1	1.06	0.94;
	44	1	195	29	0	0	1	1.00601621	-18.0023431	115	1	1.06	0.94;
	45	1	0	0	0	0	1	1.01929758	-15.2427252	230	1	1.06	0.94;
	46	1	0	0	0	0	1	1.03206329	-12.2307097	345	1	1.06	0.94;
	47	1	58	11.8	0	0	1	0.975842779	-23.7549046	115	1	1.06	0.94;
	48	1	41	19	0	0	1	0.999103494	-16.6819097	115	1	1.06	0.94;
	49	1	92	26	0	0	1	1.02893539	-3.0619631	115	1	1.06	0.94;
	51	1	-5	5	0	0	1	1.01421532	-8.51461263	115	1	1.06	0.94;
	52	1	61	28	0	0	1	0.989807983	-12.3192419	115	1	1.06	0.94;
	53	1	69	3	0	0	1	0.992028363	-18.1491613	115	1	1.06	0.94;
	54	1	10	1	0	0	1	1.00109922	-16.7788338	115	1	1.06	0.94;
	55	1	22	10	0	0	1	1.00955728	-12.693337	115	1	1.06	0.94;
	57	1	98	20	0	0	1	1.03098856	-8.47513078	115	1	1.06	0.94;
	58	1	14	1	0	0	1	0.990610191	-6.49013547	115	1	1.06	0.94;
	59	1	218	106	0	0	1	0.978050138	-5.78699512	115	1	1.06	0.94;
	60	1	0	0	0	0	1	1.02282774	-10.0516634	230	1	1.06	0.94;
	61	1	227	110	0	0	1	0.990055014	-3.96531037	115	1	1.06	0.94;
	62	1	0	0	0	0	1	1.01497552	-1.58285164	230	1	1.06	0.94;
	63	1	70	30	0	0	1	0.956362237	-18.159914	115	1	1.06	0.94;
	64	1	0	0	0	0	1	0.946214395	-13.488346	230	1	1.06	0.94;
	69	1	0	0	0	0	1	0.962244871	-27.0680735	115	1	1.06	0.94;
	70	1	56	20	0	0	1	0.950271398	-35.7384635	115	1	1.06	0.94;
	71	1	116	38	0	0	1	0.978399078	-30.4483317	115	1	1.06	0.94;
	72	1	57	19	0	0	1	0.96886532	-28.0412156	115	1	1.06	0.94;
	73	1	224	71	0	0	1	0.976444802	-26.3307357	115	1	1.06	0.94;
	74	1	0	0	0	0	1	0.995041381	-22.5275528	230	1	1.06	0.94;
	76	1	208	107	0	0	1	0.962487223	-27.102153	115	1	1.06	0.94;
	77	1	74	28	0	0	1	0.98320415	-25.5085521	115	1	1.06	0.94;
	78	1	0	0	0	0	1	0.98948983	-24.6314101	115	1	1.06	0.94;
	79	1	48	14	0	0	1	0.981329674	-25.6077533	115	1	1.06	0.94;
	80	1	28	7	0	0	1	0.986786683	-25.4128044	115	1	1.06	0.94;
	81	1	0	0	0	0	1	1.0329574	-19.3325673	345	1	1.06	0.94;
	84	3	37	13	0	0	1	1.025	-17.7386447	115	1	1.06	0.94;
	85	1	0	0	0	0	1	0.986985311	-18.3454942	230	1	1.06	0.94;
	86	1	0	0	0	0	1	0.990651569	-14.8156637	230	1	1.06	0.94;
	87	1	0	0	0	0	1	0.991666082	-8.3321321	230	1	1.06	0.94;
	88	1	0	0	0	0	1	1.01403188	-21.4491595	230	1	1.06	0.94;
	89	1	44.2	0	0	0	1	1.02977159	-11.6876209	115	1	1.06	0.94;
	90	1	66	0	0	0	1	1.02389174	-11.7827418	115	1	1.06	0.94;
	91	2	17.4	0	0	0	1	1.052	-10.0100817	115	1	1.06	0.94;
	92	2	15.8	0	0	0	1	1.052	-6.81499223	115	1	1.06	0.94;
	94	1	60.3	0	0	0	1	0.99274718	-9.99520828	115	1	1.06	0.94;
	97	1	39.9	0	0	0	1	1.01812015	-13.8585214	115	1	1.06	0.94;
	98	2	66.7	0	0	0	1	1	-15.2381708	115	1	1.06	0.94;
	99	1	83.5	0	0	0	1	0.989297215	-20.9645205	115	1	1.06	0.94;
	100	1	0	0	0	0	1	1.00591838	-15.0753964	115	1	1.06	0.94;
	102	1	77.8	0	0	0	1	1.00062627	-15.8642452	115	1	1.06	0.94;
	103	1	32	0	0	0	1	1.02842817	-12.6896517	115	1	1.06	0.94;
	104	1	8.6	0	0	0	1	0.995671526	-17.9799016	115	1	1.06	0.94;
	105	1	49.6	0	0	0	1	1.02168111	-13.5729185	115	1	1.06	0.94;
	107	1	4.6	0	0	0	1	1.00794708	-16.6573676	115	1	1.06	0.94;
	108	2	112.1	0	0	0	1	0.99	-20.9542193	115	1	1.06	0.94;
	109	1	30.7	0	0	0	1	0.97457877	-26.8889032	115	1	1.06	0.94;
	110	1	63	0	0	0	1	0.97279059	-25.5241413	115	1	1.06	0.94;
	112	1	19.6	0	0	0	1	0.974025873	-29.8715613	115	1	1.06	0.94;
	113	1	26.2	0	0	0	1	0.968513822	-26.0459359	115	1	1.06	0.94;
	114	1	18.2	0	0	0	1	0.976364766	-29.8069333	115	1	1.06	0.94;
	115	1	0	0	0	0	1	0.960255201	-14.0466784	115	2	1.06	0.94;
	116	1	0	0	0	0	1	1.02485462	-13.1651229	115	2	1.06	0.94;
	117	1	0	0	0	325	1	0.934805737	-5.19692131	115	2	1.06	0.94;
	118	1	14.1	650	0	0	1	0.92983111	-4.59929616	115	2	1.06	0.94;
	119	2	0	0	0	0	1	1.0435	4.68969854	115	2	1.06	0.94;
	120	1	777	215	0	55	1	0.958432934	-9.24703181	115	2	1.06	0.94;
	121	1	535	55	0	0	1	0.987091355	-13.1129349	115	2	1.06	0.94;
	122	1	229.1	11.8	0	0	1	0.972763383	-14.8412774	115	2	1.06	0.94;
	123	1	78	1.4	0	0	1	1.00056464	-18.1118449	115	2	1.06	0.94;
	124	1	276.4	59.3	0	0	1	1.02329343	-13.9627263	115	2	1.06	0.94;
	125	1	514.8	82.7	0	0	1	1.01026211	-18.9050094	115	2	1.06	0.94;
	126	1	57.9	5.1	0	0	1	0.997723536	-13.3405579	115	2	1.06	0.94;
	127	1	380.8	37	0	0	1	1.00004059	-10.9992258	230	2	1.06	0.94;
	128	1	0	0	0	0	1	1.00227807	-5.2517151	230	2	1.06	0.94;
	129	1	0	0	0	0	1	1.00269406	-4.87285551	230	2	1.06	0.94;
	130	1	0	0	0	0	1	1.01886946	5.08928958	230	2	1.06	0.94;
	131	1	0	0	0	0	1	0.985773659	5.58641404	230	2	1.06	0.94;
	132	1	0	0	0	0	1	1.00427536	2.57386297	230	2	1.06	0.94;
	133	1	0	0	0	0	1	1.00189718	-5.93571368	230	2	1.06	0.94;
	134	1	0	0	0	0	1	1.02202555	-8.51978836	230	2	1.06	0.94;
	135	1	169.2	41.6	0	0	1	1.01929721	-7.23160517	230	2	1.06	0.94;
	136	1	55.2	18.2	0	0	1	1.0475696	1.06534805	230	2	1.06	0.94;
	137	1	273.6	99.8	0	0	1	1.04706851	-1.92955527	230	2	1.06	0.94;
	138	2	1019.2	135.2	0	0	1	1.055	-6.82893544	230	2	1.06	0.94;
	139	1	595	83.3	0	0	1	1.01170344	-4.04413126	115	2	1.06	0.94;
	140	1	387.7	114.7	0	0	1	1.04297925	-3.91134212	230	2	1.06	0.94;
	141	2	145	58	0	0	1	1.051	-0.426844579	230	2	1.06	0.94;
	142	1	56.5	24.5	0	0	1	1.01550954	-3.24622298	230	2	1.06	0.94;
	143	2	89.5	35.5	0	0	1	1.0435	3.55475177	230	2	1.06	0.94;
	144	1	0	0	0	0	1	1.01512588	-1.18131601	230	2	1.06	0.94;
	145	1	24	14	0	0	1	1.00810512	-0.634611556	230	2	1.06	0.94;
	146	1	0	0	0	0	1	1.05279902	3.84416293	230	2	1.06	0.94;
	147	2	0	0	0	0	1	1.0528	7.88666074	230	2	1.06	0.94;
	148	1	63	25	0	0	1	1.05771812	-0.200395789	230	2	1.06	0.94;
	149	2	0	0	0	0	1	1.0735	4.75123542	230	2	1.06	0.94;
	150	1	0	0	0	0	1	0.986510547	5.86822374	230	2	1.06	0.94;
	151	1	0	0	0	0	1	1.00454485	3.66114112	230	2	1.06	0.94;
	152	2	17	9	0	0	1	1.0535	8.76622681	230	2	1.06	0.94;
	153	2	0	0	0	0	1	1.0435	9.98585294	230	2	1.06	0.94;
	154	1	70	5	0	34.5	1	0.966402986	-2.27375856	115	2	1.06	0.94;
	155	1	200	50	0	0	1	1.01770735	6.27665827	230	2	1.06	0.94;
	156	1	75	50	0	0	1	0.962977318	4.6710591	115	2	1.06	0.94;
	157	1	123.5	-24.3	0	0	1	0.984433958	-12.4030842	230	2	1.06	0.94;
	158	1	0	0	0	0	1	0.998668234	-11.878718	230	2	1.06	0.94;
	159	1	33	16.5	0	0	1	0.98660927	-10.2962722	230	2	1.06	0.94;
	160	1	0	0	0	0	1	0.999778984	-13.0283995	230	2	1.06	0.94;
	161	1	35	15	0	0	1	1.03607633	8.36929034	230	2	1.06	0.94;
	162	1	85	24	0	0	1	0.991810348	18.0264726	230	2	1.06	0.94;
	163	1	0	0.4	0	0	1	1.04099213	2.43138717	230	2	1.06	0.94;
	164	1	0	0	0	-212	1	0.983899061	9.18683414	230	2	1.06	0.94;
	165	1	0	0	0	0	1	1.00020611	25.8346449	230	2	1.06	0.94;
	166	1	0	0	0	-103	1	0.99725143	29.7464355	230	2	1.06	0.94;
	167	1	299.9	95.7	0	0	1	0.971332168	-7.38132742	230	2	1.06	0.94;
	168	1	0	0	0	0	1	1.00230342	-5.27475502	230	2	1.06	0.94;
	169	1	0	0	0	0	1	0.987737392	-7.15300839	230	2	1.06	0.94;
	170	1	481.8	205	0	0	1	0.928676673	-0.384030023	115	2	1.06	0.94;
	171	1	763.6	291.1	0	0	1	0.982787041	-10.4115802	115	2	1.06	0.94;
	172	1	26.5	0	0	0	1	1.02446236	-6.70009068	115	2	1.06	0.94;
	173	1	163.5	43	0	53	1	0.983655519	-13.2311744	115	2	1.06	0.94;
	174	1	0	0	0	0	1	1.06221292	-3.16738919	115	2	1.06	0.94;
	175	1	176	83	0	0	1	0.973081304	-7.68454858	115	2	1.06	0.94;
	176	2	5	4	0	0	1	1.0522	4.18692766	115	2	1.06	0.94;
	177	2	28	12	0	0	1	1.0077	0.141019563	115	2	1.06	0.94;
	178	1	427.4	173.6	0	0	1	0.939795956	-7.04184361	115	2	1.06	0.94;
	179	1	74	29	0	45	1	0.969911947	-9.84276905	115	2	1.06	0.94;
	180	1	69.5	49.3	0	0	1	0.979329851	-3.56986059	115	2	1.06	0.94;
	181	1	73.4	0	0	0	1	1.05181117	-1.80133593	230	2	1.06	0.94;
	182	1	240.7	89	0	0	1	1.04461798	-4.66446629	230	2	1.06	0.94;
	183	1	40	4	0	0	1	0.97164252	6.64721938	115	2	1.06	0.94;
	184	1	136.8	16.6	0	0	1	1.03856957	-7.32214447	230	2	1.06	0.94;
	185	2	0	0	0	0	1	1.0522	-4.8078239	230	2	1.06	0.94;
	186	2	59.8	24.3	0	0	1	1.065	1.69625227	230	2	1.06	0.94;
	187	2	59.8	24.3	0	0	1	1.065	0.920878208	230	2	1.06	0.94;
	188	1	182.6	43.6	0	0	1	1.05327178	-1.19927671	230	2	1.06	0.94;
	189	1	7	2	0	0	1	1.00263875	-26.6100466	66	3	1.06	0.94;
	190	2	0	0	0	-150	1	1.0551	-21.0044753	345	3	1.06	0.94;
	191	2	489	53	0	0	1	1.0435	11.8644036	230	3	1.06	0.94;
	192	1	800	72	0	0	1	0.937452476	-11.5649703	230	3	1.06	0.94;
	193	1	0	0	0	0	1	0.998030735	-28.0679829	66	3	1.06	0.94;
	194	1	0	0	0	0	1	1.04836286	-19.6260059	345	3	1.06	0.94;
	195	1	0	0	0	0	1	1.0353886	-21.1656362	345	3	1.06	0.94;
	196	1	10	3	0	0	1	0.97384672	-24.8233677	115	3	1.06	0.94;
	197	1	43	14	0	0	1	0.992324406	-23.6558851	115	3	1.06	0.94;
	198	2	64	21	0	0	1	1.015	-20.6896465	115	3	1.06	0.94;
	199	1	35	12	0	0	1	0.954246885	-26.0411117	115	3	1.06	0.94;
	200	1	27	12	0	0	1	0.956118243	-25.9615205	115	3	1.06	0.94;
	201	1	41	14	0	0	1	0.973619833	-29.8302233	66	1	1.06	0.94;
	202	1	38	13	0	0	1	0.990620687	-25.5617318	66	3	1.06	0.94;
	203	1	42	14	0	0	1	1.00325021	-22.5191215	115	3	1.06	0.94;
	204	1	72	24	0	0	1	0.966439821	-30.1471594	66	3	1.06	0.94;
	205	1	0	-5	0	0	1	0.985310922	-29.1136802	66	3	1.06	0.94;
	206	1	12	2	0	0	1	1.00343473	-29.0697595	66	3	1.06	0.94;
	207	1	-21	-14.2	0	0	1	1.01816831	-28.8904527	66	1	1.06	0.94;
	208	1	7	2	0	0	1	0.999265241	-27.595256	66	3	1.06	0.94;
	209	1	38	13	0	0	1	1.00468634	-26.2111366	66	3	1.06	0.94;
	210	1	0	0	0	0	1	0.980391115	-24.1978202	115	3	1.06	0.94;
	211	1	96	7	0	0	1	1.00157087	-23.5631716	115	3	1.06	0.94;
	212	1	0	0	0	0	1	1.0129721	-22.7923678	138	3	1.06	0.94;
	213	2	0	0	0	0	1	1.01	-11.9687406	16.5	3	1.06	0.94;
	214	1	22	16	0	0	1	0.991839249	-17.8275245	138	3	1.06	0.94;
	215	1	47	26	0	0	1	0.986556195	-20.5403129	138	3	1.06	0.94;
	216	1	176	105	0	0	1	0.975032873	-22.8602942	138	3	1.06	0.94;
	217	1	100	75	0	0	1	1.02144748	-22.574175	138	3	1.06	0.94;
	218	1	131	96	0	0	1	1.00747668	-23.0090492	138	3	1.06	0.94;
	219	1	0	0	0	0	1	1.0553069	-21.534189	345	3	1.06	0.94;
	220	2	285	100	0	0	1	1.008	-22.1073589	138	3	1.06	0.94;
	221	2	171	70	0	0	1	1	-22.8727438	138	3	1.06	0.94;
	222	2	328	188	0	0	1	1.05	-23.5513631	20	3	1.06	0.94;
	223	1	428	232	0	0	1	0.99654998	-23.0831228	138	3	1.06	0.94;
	224	1	173	99	0	0	1	1.00023613	-21.9372804	230	3	1.06	0.94;
	225	1	410	40	0	0	1	0.945269207	-11.728948	230	3	1.06	0.94;
	226	1	0	0	0	0	1	1.01797955	-21.9929214	230	3	1.06	0.94;
	227	2	538	369	0	0	1	1	-27.6038739	27	3	1.06	0.94;
	228	1	223	148	0	0	1	1.04232662	-21.3244666	138	3	1.06	0.94;
	229	1	96	46	0	0	1	1.04953021	-20.3289643	138	3	1.06	0.94;
	230	2	0	0	0	0	1	1.04	-14.207433	20	3	1.06	0.94;
	231	1	159	107	0	-300	1	1.05349417	-21.6076971	345	3	1.06	0.94;
	232	1	448	143	0	0	1	1.04142507	-23.5818406	138	3	1.06	0.94;
	233	2	404	212	0	0	1	1	-26.2836415	66	3	1.06	0.94;
	234	1	572	244	0	0	1	1.03865605	-21.2780068	138	3	1.06	0.94;
	235	1	269	157	0	0	1	1.00951354	-21.4106476	138	3	1.06	0.94;
	236	1	0	0	0	0	1	1.01641999	-15.7818449	20	3	1.06	0.94;
	237	1	0	0	0	0	1	1.05578914	-21.4848048	345	3	1.06	0.94;
	238	2	255	149	0	-150	1	1.01	-21.3228888	138	3	1.06	0.94;
	239	2	0	0	0	0	1	1	-16.2440755	138	3	1.06	0.94;
	240	1	0	0	0	-140	1	1.02377627	-20.5217331	230	3	1.06	0.94;
	241	2	0	0	0	0	1	1.05	-16.8907913	20	3	1.06	0.94;
	242	2	0	0	0	0	1	0.993	-17.8161971	138	3	1.06	0.94;
	243	2	8	3	0	0	1	1.01	-19.5395453	66	3	1.06	0.94;
	244	1	0	0	0	0	1	0.992176643	-20.4781504	66	3	1.06	0.94;
	245	1	61	30	0	0	1	0.971137194	-21.1674378	66	3	1.06	0.94;
	246	1	77	33	0	0	1	0.965187451	-22.0064187	66	3	1.06	0.94;
	247	1	61	30	0	0	1	0.96908668	-21.9208986	66	3	1.06	0.94;
	248	1	29	14	0	45.6	1	0.976965647	-25.4015395	66	3	1.06	0.94;
	249	1	29	14	0	0	1	0.976192911	-25.8251344	66	3	1.06	0.94;
	250	1	-23	-17	0	0	1	1.02049983	-23.9706147	66	3	1.06	0.94;
	281	1	-33.1	-29.4	0	0	1	1.02512536	-20.4489228	230	3	1.06	0.94;
	319	1	115.8	-24	0	0	1	1.01508961	0.991486269	230	1	1.06	0.94;
	320	1	2.4	-12.6	0	0	1	1.01445024	-2.71881684	115	1	1.06	0.94;
	322	1	2.4	-3.9	0	0	1	1.00036782	-18.2688009	115	1	1.06	0.94;
	323	1	-14.9	26.5	0	0	1	0.980720818	-14.3157668	230	1	1.06	0.94;
	324	1	24.7	-1.2	0	0	1	0.974944922	-24.1125861	115	1	1.06	0.94;
	526	1	145.3	-34.9	0	0	1	0.940707316	-34.9226562	115	1	1.06	0.94;
	528	1	28.1	-20.5	0	0	1	0.971356457	-38.1624553	115	1	1.06	0.94;
	531	1	14	2.5	0	0	1	0.959713333	-29.6669544	115	1	1.06	0.94;
	552	1	-11.1	-1.4	0	0	1	1.00034247	-23.9259599	115	1	1.06	0.94;
	562	1	50.5	17.4	0	0	1	0.9761113	-28.5464436	230	1	1.06	0.94;
	609	1	29.6	0.6	0	0	1	0.957720754	-29.361801	115	1	1.06	0.94;
	664	1	-113.7	76.7	0	0	1	1.0303867	-17.4112283	345	3	1.06	0.94;
	1190	1	100.31	29.17	0	0	1	1.0128756	3.4271919	86	2	1.06	0.94;
	1200	1	-100	34.17	0	0	1	1.02443331	-8.00087005	86	2	1.06	0.94;
	1201	1	0	0	0	0	1	1.0122184	-15.6540615	115	2	1.06	0.94;
	2040	1	0	0	0	0	1	0.969328437	-25.2960065	115	3	1.06	0.94;
	7001	2	0	0	0	0	1	1.0507	10.3235392	13.8	1	1.06	0.94;
	7002	2	0	0	0	0	1	1.0507	12.0201071	13.8	1	1.06	0.94;
	7003	1	0	0	0	0	1	1.03181201	13.2959268	13.8	1	1.06	0.94;
	7011	2	0	0	0	0	1	1.0145	4.5205662	13.8	1	1.06	0.94;
	7012	2	0	0	0	0	1	1.0507	11.1016016	13.8	1	1.06	0.94;
	7017	1	0	0	0	0	1	1.04978451	-10.9886326	13.8	1	1.06	0.94;
	7023	2	0	0	0	0	1	1.0507	5.66468925	13.8	1	1.06	0.94;
	7024	2	0	0	0	0	1	1.029	12.113586	13.8	1	1.06	0.94;
	7039	2	0	0	0	0	1	1.05	1.66751826	20	1	1.06	0.94;
	7044	1	0	0	0	0	1	1.01273943	-14.4364301	13.8	1	1.06	0.94;
	7049	1	0	0	0	0	1	1.02867187	0	13.8	1	1.06	0.94;
	7055	1	0	0	0	0	1	0.991585008	-7.93082039	13.8	1	1.06	0.94;
	7057	1	0	0	0	0	1	1.01894055	-3.8989887	13.8	1	1.06	0.94;
	7061	2	0	0	0	0	1	1.0145	1.47345859	13.8	1	1.06	0.94;
	7062	1	0	0	0	0	1	1.00070927	5.32337406	13.8	1	1.06	0.94;
	7071	1	0	0	0	0	1	0.988436388	-25.9104599	13.8	1	1.06	0.94;
	7130	2	0	0	0	0	1	1.0507	18.5588332	13.8	2	1.06	0.94;
	7139	2	0	0	0	0	1	1.0507	2.26957649	13.8	2	1.06	0.94;
	7166	2	0	0	0	0	1	1.0145	34.5750883	13.8	2	1.06	0.94;
	9001	1	0	0	0	0	1	1.00553769	-11.732735	115	9	1.06	0.94;
	9002	1	4.2	0	0	0	1	0.98768497	-19.4415715	6.6	9	1.06	0.94;
	9003	1	2.71	0.94	0.14	2.4	1	0.975724909	-20.2837069	6.6	9	1.06	0.94;
	9004	1	0.86	0.28	0	0	1	0.969162724	-20.4228434	6.6	9	1.06	0.94;
	9005	1	0	0	0	0	1	1.00571278	-11.810201	115	9	1.06	0.94;
	9006	1	0	0	0	0	1	0.995617018	-17.9913461	6.6	9	1.06	0.94;
	9007	1	0	0	0	0	1	0.983911326	-19.2697309	6.6	9	1.06	0.94;
	9012	1	0	0	0	0	1	0.995538625	-17.8292816	6.6	9	1.06	0.94;
	9021	1	4.75	1.56	0	0	1	0.981865615	-19.6651941	6.6	9	1.06	0.94;
	9022	1	1.53	0.53	0.08	0	1	0.957845349	-22.2728036	0.6	9	1.06	0.94;
	9023	1	0	0	0	0	1	0.967749715	-19.97829	6.6	9	1.06	0.94;
	9024	1	1.35	0.47	0.07	0	1	0.963506787	-22.042227	0.6	9	1.06	0.94;
	9025	1	0.45	0.16	0.02	0	1	0.957729003	-21.0542704	0.6	9	1.06	0.94;
	9026	1	0.45	0.16	0.02	0	1	0.958585458	-20.9637502	0.6	9	1.06	0.94;
	9031	1	1.84	0.64	0.1	0	1	0.923625014	-25.7114748	0.6	9	1.06	0.94;
	9032	1	1.39	0.48	0.07	0	1	0.936099403	-24.5027794	0.6	9	1.06	0.94;
	9033	1	1.89	0.65	0.1	0	1	0.920644846	-26.0322888	0.6	9	1.06	0.94;
	9034	1	1.55	0.54	0.08	1.72	1	0.989359991	-21.7166532	0.6	9	1.06	0.94;
	9035	1	1.66	0.58	0.09	0	1	0.942516515	-23.8368274	0.6	9	1.06	0.94;
	9036	1	3.03	1	0	0	1	0.951872671	-23.3169683	2.3	9	1.06	0.94;
	9037	1	1.86	0.64	0.1	0	1	0.949186804	-23.2345697	0.6	9	1.06	0.94;
	9038	1	2.58	0.89	0.14	0	1	0.931127714	-25.0960154	0.6	9	1.06	0.94;
	9041	1	1.01	0.35	0.05	0	1	0.955781866	-21.9474692	0.6	9	1.06	0.94;
	9042	1	0.81	0.28	0.04	0	1	0.942372493	-23.1305357	0.6	9	1.06	0.94;
	9043	1	1.6	0.52	0	0	1	0.956915861	-22.0525612	2.3	9	1.06	0.94;
	9044	1	0	0	0	0	1	0.971362145	-20.3821762	6.6	9	1.06	0.94;
	9051	2	35.81	0	0	0	1	1	-19.9467779	13.8	9	1.06	0.94;
	9052	1	30	23	0	0	1	0.971430116	-17.814845	13.8	9	1.06	0.94;
	9053	2	26.48	0	0	0	1	1	-18.2232947	13.8	9	1.06	0.94;
	9054	2	0	0	0	0	1	1	-7.28741723	13.8	9	1.06	0.94;
	9055	2	0	0	0	0	1	1	-8.00269337	13.8	9	1.06	0.94;
	9071	1	1.02	0.35	0.05	0	1	0.967827131	-21.0815032	0.6	9	1.06	0.94;
	9072	1	1.02	0.35	0.05	0	1	0.972899187	-20.5194295	0.6	9	1.06	0.94;
	9121	1	3.8	1.25	0	0	1	0.972978383	-19.8816462	6.6	9	1.06	0.94;
	9533	1	1.19	0.41	0.1	0	1	1.04051734	-18.737109	2.3	9	1.06	0.94;
];

%% generator data
%	bus	Pg	Qg	Qmax	Qmin	Vg	mBase	status	Pmax	Pmin	Pc1	Pc2	Qc1min	Qc1max	Qc2min	Qc2max	ramp_agc	ramp_10	ramp_30	ramp_q	apf
mpc.gen = [
	8	1.13288528	10	10	-10	1.0153	100	1	100	0	0	0	0	0	0	0	0	0	0	0	0;
	10	0	20	20	-20	1.0205	100	1	100	0	0	0	0	0	0	0	0	0	0	0	0;
	20	0	20	20	-20	1.001	100	1	100	0	0	0	0	0	0	0	0	0	0	0	0;
	63	0	25	25	-25	0.9583	100	1	100	0	0	0	0	0	0	0	0	0	0	0	0;
	76	0	35	35	12	0.9632	100	1	100	0	0	0	0	0	0	0	0	0	0	0	0;
	84	375.108048	134.467352	240	-240	1.025	100	1	475	0	0	0	0	0	0	0	0	0	0	0	0;
	91	155	45.9617257	96	-11	1.052	100	1	255	0	0	0	0	0	0	0	0	0	0	0	0;
	92	290	33.8587897	153	-153	1.052	100	1	390	0	0	0	0	0	0	0	0	0	0	0	0;
	98	68	-10.521001	56	-30	1	100	1	168	0	0	0	0	0	0	0	0	0	0	0	0;
	108	117	22.2231543	77	-24	0.99	100	1	217	0	0	0	0	0	0	0	0	0	0	0	0;
	119	1930	1050.83869	1500	-500	1.0435	100	1	2030	0	0	0	0	0	0	0	0	0	0	0	0;
	124	240	120	120	-60	1.0233	100	1	340	0	0	0	0	0	0	0	0	0	0	0	0;
	125	0	200	200	-25	1.0103	100	1	100	0	0	0	0	0	0	0	0	0	0	0	0;
	138	0	228.730685	350	-125	1.055	100	1	100	0	0	0	0	0	0	0	0	0	0	0	0;
	141	281	65.1140525	75	-50	1.051	100	1	381	0	0	0	0	0	0	0	0	0	0	0	0;
	143	696	124.991248	300	-100	1.0435	100	1	796	0	0	0	0	0	0	0	0	0	0	0	0;
	146	84	35	35	-15	1.0528	100	1	184	0	0	0	0	0	0	0	0	0	0	0	0;
	147	217	-49.9605511	100	-50	1.0528	100	1	317	0	0	0	0	0	0	0	0	0	0	0	0;
	149	103	49.9690059	50	-25	1.0735	100	1	203	0	0	0	0	0	0	0	0	0	0	0	0;
	152	372	-49.8838788	175	-50	1.0535	100	1	472	0	0	0	0	0	0	0	0	0	0	0	0;
	153	216	-23.8144136	90	-50	1.0435	100	1	316	0	0	0	0	0	0	0	0	0	0	0	0;
	156	0	15	15	-10	0.963	100	1	100	0	0	0	0	0	0	0	0	0	0	0	0;
	170	205	90	90	-40	0.929	100	1	305	0	0	0	0	0	0	0	0	0	0	0	0;
	171	0	150	150	-50	0.9829	100	1	100	0	0	0	0	0	0	0	0	0	0	0	0;
	176	228	39.7167129	90	-45	1.0522	100	1	328	0	0	0	0	0	0	0	0	0	0	0	0;
	177	84	34.9908735	35	-15	1.0077	100	1	184	0	0	0	0	0	0	0	0	0	0	0	0;
	185	200	33.345945	80	-50	1.0522	100	1	300	0	0	0	0	0	0	0	0	0	0	0	0;
	186	1200	237.527035	400	-100	1.065	100	1	1300	0	0	0	0	0	0	0	0	0	0	0	0;
	187	1200	278.604901	400	-100	1.065	100	1	1300	0	0	0	0	0	0	0	0	0	0	0	0;
	190	475	-64.6456135	300	-300	1.0551	100	1	575	0	0	0	0	0	0	0	0	0	0	0	0;
	191	1973	692.092156	1000	-1000	1.0435	100	1	2073	0	0	0	0	0	0	0	0	0	0	0	0;
	198	424	94.3110516	260	-260	1.015	100	1	524	0	0	0	0	0	0	0	0	0	0	0	0;
	213	272	44.1448305	150	-150	1.01	100	1	372	0	0	0	0	0	0	0	0	0	0	0	0;
	220	100	36.0652204	60	-60	1.008	100	1	200	0	0	0	0	0	0	0	0	0	0	0	0;
	221	450	160.400137	320	-320	1	100	1	550	0	0	0	0	0	0	0	0	0	0	0	0;
	222	250	161.509935	300	-300	1.05	100	1	350	0	0	0	0	0	0	0	0	0	0	0	0;
	227	303	263.057273	300	-300	1	100	1	403	0	0	0	0	0	0	0	0	0	0	0	0;
	230	345	42.5981642	250	-250	1.04	100	1	445	0	0	0	0	0	0	0	0	0	0	0	0;
	233	300	132.619772	500	-500	1	100	1	400	0	0	0	0	0	0	0	0	0	0	0	0;
	236	600	300	300	-300	1.0165	100	1	700	0	0	0	0	0	0	0	0	0	0	0	0;
	238	250	164.265279	200	-200	1.01	100	1	350	0	0	0	0	0	0	0	0	0	0	0	0;
	239	550	68.3847608	400	-400	1	100	1	650	0	0	0	0	0	0	0	0	0	0	0	0;
	241	575.43	-35.0270437	600	-600	1.05	100	1	675.43	0	0	0	0	0	0	0	0	0	0	0	0;
	242	170	51.9938003	100	40	0.993	100	1	270	0	0	0	0	0	0	0	0	0	0	0	0;
	243	84	52.2050484	80	40	1.01	100	1	184	0	0	0	0	0	0	0	0	0	0	0	0;
	7001	467	140.728646	210	-210	1.0507	100	1	567	0	0	0	0	0	0	0	0	0	0	0	0;
	7002	623	95.181083	280	-280	1.0507	100	1	723	0	0	0	0	0	0	0	0	0	0	0	0;
	7003	1210	420	420	-420	1.0323	100	1	1310	0	0	0	0	0	0	0	0	0	0	0	0;
	7011	234	52.7206221	100	-100	1.0145	100	1	334	0	0	0	0	0	0	0	0	0	0	0	0;
	7012	372	201.29176	224	-224	1.0507	100	1	472	0	0	0	0	0	0	0	0	0	0	0	0;
	7017	330	350	350	0	1.0507	100	1	430	0	0	0	0	0	0	0	0	0	0	0	0;
	7023	185	6.63323179	120	0	1.0507	100	1	285	0	0	0	0	0	0	0	0	0	0	0	0;
	7024	410	107.095124	224	-224	1.029	100	1	510	0	0	0	0	0	0	0	0	0	0	0	0;
	7039	500	161.539463	200	-200	1.05	100	1	600	0	0	0	0	0	0	0	0	0	0	0	0;
	7044	37	42	42	0	1.0145	100	1	137	0	0	0	0	0	0	0	0	0	0	0	0;
	7049	455.946477	10	10	0	1.0507	100	1	2399.005	0	0	0	0	0	0	0	0	0	0	0	0;
	7055	45	25	25	0	0.9967	100	1	145	0	0	0	0	0	0	0	0	0	0	0	0;
	7057	165	90	90	-90	1.0212	100	1	265	0	0	0	0	0	0	0	0	0	0	0	0;
	7061	400	123.198475	150	-150	1.0145	100	1	500	0	0	0	0	0	0	0	0	0	0	0	0;
	7062	400	150	150	0	1.0017	100	1	500	0	0	0	0	0	0	0	0	0	0	0	0;
	7071	116	87	87	0	0.9893	100	1	216	0	0	0	0	0	0	0	0	0	0	0	0;
	7130	1292	325.856844	600	-100	1.0507	100	1	1392	0	0	0	0	0	0	0	0	0	0	0	0;
	7139	700	283.958726	325	-125	1.0507	100	1	800	0	0	0	0	0	0	0	0	0	0	0	0;
	7166	553	136.943842	300	-200	1.0145	100	1	653	0	0	0	0	0	0	0	0	0	0	0	0;
	9002	0	2	2	-2	0.9945	100	1	100	0	0	0	0	0	0	0	0	0	0	0	0;
	9051	0	13.7557431	17.35	-17.35	1	100	1	100	0	0	0	0	0	0	0	0	0	0	0	0;
	9053	0	12.6956297	12.83	-12.8	1	100	1	100	0	0	0	0	0	0	0	0	0	0	0	0;
	9054	50	25.7981427	38	-38	1	100	1	150	0	0	0	0	0	0	0	0	0	0	0	0;
	9055	8	4.79241136	6	-6	1	100	1	108	0	0	0	0	0	0	0	0	0	0	0	0;
];

%% branch data
%	fbus	tbus	r	x	b	rateA	rateB	rateC	ratio	angle	status	angmin	angmax	Pf	Qf	Pt	Qt
mpc.branch = [
	37	9001	6e-05	0.00046	0	0	0	75	1.0082	0	1	-360	360	79.6463	2.0262	-79.6426	-1.9973;
	9001	9005	0.0008	0.00348	0	0	0	0	0	0	1	-360	360	36.2190	-13.3588	-36.2072	13.4101;
	9001	9006	0.02439	0.43682	0	0	0	0	0.9668	0	1	-360	360	26.4304	10.5209	-26.2480	-7.2530;
	9001	9012	0.03624	0.64898	0	0	0	0	0.9796	0	1	-360	360	16.9931	4.8352	-16.8858	-2.9126;
	9005	9051	0.01578	0.37486	0	0	0	0	1.0435	0	1	-360	360	36.0422	-8.2394	-35.8100	13.7557;
	9005	9052	0.01578	0.37486	0	0	0	0	0.9391	0	1	-360	360	30.2390	28.6765	-30.0000	-23.0000;
	9005	9053	0.01602	0.38046	0	0	0	0	1.0435	0	1	-360	360	27.9260	-8.7640	-27.7783	12.2728;
	9005	9054	0	0.152	0	0	0	0	1.0435	0	1	-360	360	-50.0000	-20.9865	50.0000	25.7981;
	9005	9055	0	0.8	0	0	0	0	1.0435	0	1	-360	360	-8.0000	-4.0967	8.0000	4.7924;
	9006	9007	0.05558	0.24666	0	0	0	0	0	0	1	-360	360	9.4667	2.6906	-9.4123	-2.4496;
	9006	9003	0.11118	0.49332	0	0	0	0	0	0	1	-360	360	8.3907	2.2812	-8.3059	-1.9049;
	9006	9003	0.11118	0.49332	0	0	0	0	0	0	1	-360	360	8.3907	2.2812	-8.3059	-1.9049;
	9012	9002	0.07622	0.43286	0	0	0	0	0	0	1	-360	360	6.5230	0.7476	-6.4898	-0.5593;
	9012	9002	0.07622	0.43286	0	0	0	0	0	0	1	-360	360	6.5230	0.7476	-6.4898	-0.5593;
	9002	9021	0.0537	0.07026	0	0	0	0	0	0	1	-360	360	7.3525	2.5715	-7.3191	-2.5278;
	9021	9023	1.1068	0.95278	0	0	0	0	0	0	1	-360	360	0.9519	0.3503	-0.9401	-0.3402;
	9021	9022	0.44364	2.8152	0	0	0	0	1	0	1	-360	360	1.6172	0.6175	-1.6034	-0.5300;
	9002	9024	0.50748	3.2202	0	0	0	0	1	0	1	-360	360	1.4271	0.5471	-1.4150	-0.4700;
	9023	9025	0.66688	3.944	0	0	0	0	1	0	1	-360	360	0.4701	0.1705	-0.4683	-0.1600;
	9023	9026	0.6113	3.6152	0	0	0	0	1	0	1	-360	360	0.4700	0.1696	-0.4684	-0.1600;
	9007	9071	0.4412	2.9668	0	0	0	0	1	0	1	-360	360	1.0728	0.3899	-1.0668	-0.3500;
	9007	9072	0.30792	2.057	0	0	0	0	1	0	1	-360	360	1.0714	0.3774	-1.0673	-0.3500;
	9007	9003	0.0558	0.24666	0	0	0	0	0	0	1	-360	360	7.2681	1.6822	-7.2361	-1.5404;
	9003	9031	0.73633	4.6724	0	0	0	0	1	0	1	-360	360	1.9608	0.8655	-1.9253	-0.6400;
	9003	9032	0.76978	4.8846	0	0	0	0	1	0	1	-360	360	1.4719	0.6103	-1.4513	-0.4800;
	9003	9033	0.75732	4.8056	0	0	0	0	1	0	1	-360	360	2.0134	0.8951	-1.9748	-0.6500;
	9003	9044	0.07378	0.06352	0	0	0	0	0	0	1	-360	360	4.4063	1.5858	-4.3893	-1.5712;
	9044	9004	0.03832	0.02894	0	0	0	0	0	0	1	-360	360	4.3893	1.5712	-4.3805	-1.5645;
	9004	9041	0.36614	2.456	0	0	0	0	1	0	1	-360	360	1.0606	0.3833	-1.0557	-0.3500;
	9004	9042	1.0593	5.4536	0	0	0	0	1	0	1	-360	360	0.8550	0.3287	-0.8455	-0.2800;
	9004	9043	0.1567	1.6994	0	0	0	0	1	0	1	-360	360	1.6048	0.5725	-1.6000	-0.5200;
	9003	9034	0.13006	1.3912	0	0	0	0	1	0	1	-360	360	1.6336	-1.0873	-1.6283	1.1436;
	9003	9035	0.54484	3.4572	0	0	0	0	1	0	1	-360	360	1.7606	0.7109	-1.7400	-0.5800;
	9003	9036	0.15426	1.6729	0	0	0	0	1	0	1	-360	360	3.0473	1.1880	-3.0300	-1.0000;
	9003	9037	0.3849	2.5712	0	0	0	0	1	0	1	-360	360	1.9681	0.7602	-1.9501	-0.6400;
	9003	9038	0.4412	2.9668	0	0	0	0	1	0	1	-360	360	2.7425	1.1668	-2.7014	-0.8900;
	9012	9121	0.23552	0.99036	0	0	0	0	0	0	1	-360	360	3.8398	1.4174	-3.8000	-1.2500;
	9053	9533	0	0.75	0	0	0	0	0.9583	0	1	-360	360	1.2983	0.4228	-1.2983	-0.4100;
	1	5	0.001	0.006	0	0	0	0	0	0	1	-360	360	402.0899	97.2783	-400.4711	-87.5657;
	2	6	0.001	0.009	0	0	0	0	0	0	1	-360	360	158.6468	31.4798	-158.4027	-29.2824;
	2	8	0.006	0.027	0.054	0	0	0	0	0	1	-360	360	364.8684	10.4733	-357.4031	17.4467;
	3	7	0	0.003	0	0	0	0	0	0	1	-360	360	260.4025	120.8857	-260.4025	-118.3961;
	3	19	0.008	0.069	0.139	0	0	0	0	0	1	-360	360	139.3531	5.3594	-137.7768	-5.3634;
	3	150	0.001	0.007	0	0	0	0	0	0	1	-360	360	93.0184	130.6011	-92.7596	-128.7891;
	4	16	0.002	0.019	1.127	0	0	0	0	0	1	-360	360	712.0231	-87.7436	-702.4517	59.1198;
	5	9	0.006	0.029	0.018	0	0	0	0	0	1	-360	360	119.3381	31.3108	-118.4549	-28.8819;
	7	12	0.001	0.009	0.07	0	0	0	0	0	1	-360	360	180.8123	-66.8435	-180.4399	63.2637;
	7	131	0.001	0.007	0.014	0	0	0	0	0	1	-360	360	46.1259	95.2018	-46.0110	-95.7685;
	8	11	0.013	0.0595	0.033	0	0	0	0	0	1	-360	360	1.7197	13.9137	-1.6886	-17.1387;
	8	14	0.013	0.042	0.081	0	0	0	0	0	1	-360	360	293.8163	-35.3604	-282.7971	62.7553;
	9	11	0.006	0.027	0.013	0	0	0	0	0	1	-360	360	22.4549	-14.1181	-22.4140	12.9907;
	11	13	0.008	0.034	0.018	0	0	0	0	0	1	-360	360	153.5649	-9.1234	-151.6936	15.2716;
	12	21	0.002	0.015	0.118	0	0	0	0	0	1	-360	360	420.9776	98.2692	-417.1941	-81.3657;
	13	20	0.006	0.034	0.016	0	0	0	0	0	1	-360	360	93.6936	-25.2716	-93.1280	26.8793;
	14	15	0.014	0.042	0.097	0	0	0	0	0	1	-360	360	122.7971	-122.7553	-118.7234	124.9726;
	15	37	0.065	0.248	0.121	0	0	0	0	0	1	-360	360	20.1736	-3.4336	-19.9200	-8.2698;
	15	89	0.099	0.248	0.035	0	0	0	0	0	1	-360	360	17.3987	-7.1411	-17.0919	4.1876;
	15	90	0.096	0.363	0.048	0	0	0	0	0	1	-360	360	13.5353	-3.3043	-13.3699	-1.1459;
	16	42	0.002	0.022	1.28	0	0	0	0	0	1	-360	360	400.6548	-144.6442	-397.5166	41.7806;
	19	21	0.002	0.018	0.036	0	0	0	0	0	1	-360	360	-46.4182	40.2227	46.4995	-42.9363;
	19	87	0.013	0.08	0.151	0	0	0	0	0	1	-360	360	184.1950	-34.8593	-179.5147	48.9622;
	20	22	0.016	0.033	0.015	0	0	0	0	0	1	-360	360	-15.1489	20.8932	15.2604	-22.1583;
	20	27	0.069	0.186	0.098	0	0	0	0	0	1	-360	360	24.3018	0.4733	-23.8749	-8.8857;
	21	24	0.004	0.034	0.28	0	0	0	0	0	1	-360	360	-227.3302	-65.9688	229.6220	57.9880;
	22	23	0.052	0.111	0.05	0	0	0	0	0	1	-360	360	-96.2604	-0.8417	101.1188	5.9760;
	23	25	0.019	0.039	0.018	0	0	0	0	0	1	-360	360	126.4833	12.0840	-123.6970	-8.2993;
	24	319	0.007	0.068	0.134	0	0	0	0	0	1	-360	360	116.7759	-28.1984	-115.8000	24.0000;
	25	26	0.036	0.071	0.034	0	0	0	0	0	1	-360	360	78.6970	-3.7007	-76.5664	4.4280;
	26	27	0.045	0.12	0.065	0	0	0	0	0	1	-360	360	46.0898	0.3587	-45.1251	-4.1143;
	26	320	0.043	0.13	0.014	0	0	0	0	0	1	-360	360	2.4765	-13.7868	-2.4000	12.6000;
	33	34	0	0.063	0	0	0	0	0	0	1	-360	360	-120.8755	-26.4856	120.8755	35.7710;
	33	38	0.0025	0.012	0.013	0	0	0	0	0	1	-360	360	85.1759	19.8326	-84.9912	-20.2907;
	33	40	0.006	0.029	0.02	0	0	0	0	0	1	-360	360	47.7697	-0.3579	-47.6379	-1.0768;
	33	41	0.007	0.043	0.026	0	0	0	0	0	1	-360	360	-67.0701	1.0110	67.3735	-1.8586;
	34	42	0.001	0.008	0.042	0	0	0	0	0	1	-360	360	-120.8755	-35.7710	121.0215	32.3938;
	35	72	0.012	0.06	0.008	0	0	0	0	0	1	-360	360	48.6201	0.5375	-48.3216	0.1994;
	35	76	0.006	0.014	0.002	0	0	0	0	0	1	-360	360	113.1242	38.9468	-112.2202	-37.0251;
	35	77	0.01	0.029	0.003	0	0	0	0	0	1	-360	360	-48.1338	-10.9770	48.3899	11.4321;
	36	88	0.004	0.027	0.043	0	0	0	0	0	1	-360	360	-113.6105	-35.2913	114.1706	34.7107;
	37	38	0.008	0.047	0.008	0	0	0	0	0	1	-360	360	50.0629	-10.4194	-49.8600	10.7881;
	37	40	0.022	0.064	0.007	0	0	0	0	0	1	-360	360	38.6954	-17.0347	-38.3154	17.4189;
	37	41	0.01	0.036	0.02	0	0	0	0	0	1	-360	360	-43.0335	-15.3879	43.2338	14.0337;
	37	49	0.017	0.081	0.048	0	0	0	0	0	1	-360	360	-186.3766	32.4045	192.3228	-9.0806;
	37	89	0.102	0.254	0.033	0	0	0	0	0	1	-360	360	-2.3499	-7.1113	2.3844	3.7517;
	37	90	0.047	0.127	0.016	0	0	0	0	0	1	-360	360	-1.7246	-8.2075	1.7508	6.6176;
	38	41	0.008	0.037	0.02	0	0	0	0	0	1	-360	360	-104.1113	0.2065	104.9534	1.6114;
	38	43	0.032	0.087	0.04	0	0	0	0	0	1	-360	360	83.9625	-8.7039	-81.7582	10.6498;
	39	42	0.0006	0.0064	0.404	0	0	0	0	0	1	-360	360	500.0000	87.8706	-498.5768	-116.9507;
	40	48	0.026	0.154	0.022	0	0	0	0	0	1	-360	360	39.9532	4.6580	-39.5430	-4.4625;
	41	42	0	0.029	0	0	0	0	0	0	1	-360	360	-194.1724	-61.3499	194.1724	72.8344;
	41	49	0.065	0.191	0.02	0	0	0	0	0	1	-360	360	-67.0176	23.9259	70.1928	-16.7015;
	41	51	0.031	0.089	0.036	0	0	0	0	0	1	-360	360	-40.3706	23.6375	41.0460	-25.4349;
	42	46	0.002	0.014	0.806	0	0	0	0	0	1	-360	360	580.8995	-30.0582	-574.6816	-13.1089;
	43	44	0.026	0.072	0.035	0	0	0	0	0	1	-360	360	10.4309	-18.1824	-10.3317	14.9473;
	43	48	0.095	0.262	0.032	0	0	0	0	0	1	-360	360	-4.0680	-0.9707	4.0842	-2.1716;
	43	53	0.013	0.039	0.016	0	0	0	0	0	1	-360	360	36.3953	-0.4968	-36.2220	-0.5654;
	44	47	0.027	0.084	0.039	0	0	0	0	0	1	-360	360	118.4154	1.9868	-114.6704	5.8340;
	44	54	0.028	0.084	0.037	0	0	0	0	0	1	-360	360	-21.1921	11.3538	21.3648	-14.5623;
	45	60	0.007	0.041	0.312	0	0	0	0	0	1	-360	360	-223.2787	23.5660	226.7442	-35.7967;
	45	74	0.009	0.054	0.411	0	0	0	0	0	1	-360	360	241.6094	-0.6723	-236.5156	-10.4626;
	46	81	0.005	0.042	0.69	0	0	0	0	0	1	-360	360	311.4594	-56.5496	-306.8873	21.3955;
	47	73	0.052	0.145	0.073	0	0	0	0	0	1	-360	360	26.2499	-12.6307	-25.8278	6.8517;
	47	113	0.043	0.118	0.013	0	0	0	0	0	1	-360	360	30.4205	-5.0032	-29.9939	4.9451;
	48	107	0.025	0.062	0.007	0	0	0	0	0	1	-360	360	-5.5411	-12.3660	5.5850	11.7698;
	49	51	0.031	0.094	0.043	0	0	0	0	0	1	-360	360	101.4309	-14.5906	-98.3740	19.3721;
	51	52	0.037	0.109	0.049	0	0	0	0	0	1	-360	360	62.3280	1.0628	-60.9260	-1.8531;
	52	55	0.027	0.08	0.036	0	0	0	0	0	1	-360	360	-0.0740	-26.1469	0.2378	23.0344;
	53	54	0.025	0.073	0.035	0	0	0	0	0	1	-360	360	-32.7780	-2.4346	33.0511	-0.2442;
	54	55	0.035	0.103	0.047	0	0	0	0	0	1	-360	360	-64.4159	13.8064	65.9562	-14.0238;
	55	57	0.065	0.169	0.082	0	0	0	0	0	1	-360	360	-43.1940	1.3002	44.4030	-6.6936;
	57	58	0.046	0.08	0.036	0	0	0	0	0	1	-360	360	-10.4147	56.8782	11.9574	-57.8748;
	57	63	0.159	0.537	0.071	0	0	0	0	0	1	-360	360	33.0116	3.3965	-31.3046	-4.6516;
	58	59	0.009	0.026	0.005	0	0	0	0	0	1	-360	360	-25.9574	56.8748	26.3184	-56.3163;
	59	61	0.002	0.013	0.015	0	0	0	0	0	1	-360	360	-244.3184	-49.6837	245.6166	56.6690;
	60	62	0.009	0.065	0.485	0	0	0	0	0	1	-360	360	-226.7442	35.7967	231.4890	-51.8803;
	62	64	0.016	0.105	0.203	0	0	0	0	0	1	-360	360	197.2375	45.6309	-190.7068	-22.3171;
	62	144	0.001	0.007	0.013	0	0	0	0	0	1	-360	360	-101.3430	11.9892	101.4443	-12.6199;
	63	526	0.0265	0.172	0.026	0	0	0	0	0	1	-360	360	152.0114	6.3213	-145.3000	34.9000;
	69	211	0.051	0.232	0.028	0	0	0	0	0	1	-360	360	-27.4825	-10.7888	27.9481	10.2063;
	69	79	0.051	0.157	0.023	0	0	0	0	0	1	-360	360	-17.2443	-6.9648	17.4273	5.3558;
	70	71	0.032	0.1	0.062	0	0	0	0	0	1	-360	360	-84.3683	1.4297	86.8970	0.7057;
	70	528	0.02	0.1234	0.028	0	0	0	0	0	1	-360	360	28.3683	-21.4297	-28.1000	20.5000;
	71	72	0.036	0.131	0.068	0	0	0	0	0	1	-360	360	-26.2751	11.7249	26.6192	-16.9194;
	71	73	0.034	0.099	0.047	0	0	0	0	0	1	-360	360	-60.6219	22.9923	62.1535	-23.0229;
	72	77	0.018	0.087	0.011	0	0	0	0	0	1	-360	360	-49.3538	-5.2039	49.8251	6.4338;
	72	531	0.0256	0.193	0	0	0	0	0	0	1	-360	360	14.0562	2.9238	-14.0000	-2.5000;
	73	76	0.021	0.057	0.03	0	0	0	0	0	1	-360	360	27.3501	12.5531	-27.1423	-14.8087;
	73	79	0.018	0.052	0.018	0	0	0	0	0	1	-360	360	-23.5537	-1.7309	23.6586	0.3091;
	74	88	0.004	0.027	0.05	0	0	0	0	0	1	-360	360	-78.8720	-60.1150	79.2576	57.6715;
	74	562	0.0286	0.2013	0.379	0	0	0	0	0	1	-360	360	51.2656	-14.0291	-50.5000	-17.4000;
	76	77	0.016	0.043	0.004	0	0	0	0	0	1	-360	360	-68.6375	-20.1661	69.5201	22.1596;
	77	78	0.001	0.006	0.007	0	0	0	0	0	1	-360	360	-257.9047	-58.4560	258.6277	62.1130;
	77	80	0.014	0.07	0.038	0	0	0	0	0	1	-360	360	-3.1944	-6.2278	3.1987	2.5624;
	77	552	0.0891	0.2676	0.029	0	0	0	0	0	1	-360	360	-10.9831	-3.9015	11.1000	1.4000;
	77	609	0.0782	0.2127	0.022	0	0	0	0	0	1	-360	360	30.3471	0.5598	-29.6000	-0.6000;
	78	79	0.006	0.022	0.011	0	0	0	0	0	1	-360	360	79.4803	15.1276	-79.0781	-14.7212;
	78	84	0	0.036	0	0	0	0	0	0	1	-360	360	-338.1080	-77.2406	338.1080	121.4674;
	79	211	0.099	0.375	0.051	0	0	0	0	0	1	-360	360	-10.0078	-4.9436	10.1171	0.3441;
	80	211	0.022	0.107	0.058	0	0	0	0	0	1	-360	360	-31.1987	-9.5624	31.4289	4.9488;
	81	194	0.0035	0.033	0.53	0	0	0	0	0	1	-360	360	11.5664	-77.6810	-11.4819	21.0766;
	81	195	0.0035	0.033	0.53	0	0	0	0	0	1	-360	360	101.8928	-45.0339	-101.5430	-8.3526;
	85	86	0.008	0.064	0.128	0	0	0	0	0	1	-360	360	-92.9527	2.6289	93.6688	-9.4162;
	86	87	0.012	0.093	0.183	0	0	0	0	0	1	-360	360	-116.6056	11.7415	118.3207	-16.4276;
	86	323	0.006	0.048	0.092	0	0	0	0	0	1	-360	360	-14.8557	17.9153	14.9000	-26.5000;
	89	91	0.047	0.119	0.014	0	0	0	0	0	1	-360	360	-29.4925	-7.9393	29.9010	7.4565;
	90	92	0.032	0.174	0.024	0	0	0	0	0	1	-360	360	-54.3809	-5.4717	55.2890	7.8234;
	91	94	0.1	0.253	0.031	0	0	0	0	0	1	-360	360	8.3298	19.6301	-7.8554	-21.6729;
	91	97	0.022	0.077	0.039	0	0	0	0	0	1	-360	360	99.3692	18.8751	-97.3184	-15.8766;
	92	103	0.019	0.144	0.017	0	0	0	0	0	1	-360	360	78.3291	9.8906	-77.2556	-3.5944;
	92	105	0.017	0.092	0.012	0	0	0	0	0	1	-360	360	140.5819	16.1448	-137.5027	-0.7711;
	94	97	0.278	0.427	0.043	0	0	0	0	0	1	-360	360	8.7494	-13.1764	-8.1886	9.6903;
	97	100	0.022	0.053	0.007	0	0	0	0	0	1	-360	360	43.4593	5.4726	-43.0513	-5.2065;
	97	102	0.038	0.092	0.012	0	0	0	0	0	1	-360	360	40.1783	2.8207	-39.5822	-2.6001;
	97	103	0.048	0.122	0.015	0	0	0	0	0	1	-360	360	-18.0307	-2.1071	18.1821	0.9211;
	98	100	0.024	0.064	0.007	0	0	0	0	0	1	-360	360	-6.9529	-6.9838	6.9751	6.3387;
	98	102	0.034	0.121	0.015	0	0	0	0	0	1	-360	360	8.2529	-3.5372	-8.2271	2.1281;
	99	107	0.053	0.135	0.017	0	0	0	0	0	1	-360	360	-52.0050	8.0041	53.5119	-5.8613;
	99	108	0.002	0.004	0.002	0	0	0	0	0	1	-360	360	-10.4742	-12.2419	10.4795	12.0566;
	99	109	0.045	0.354	0.044	0	0	0	0	0	1	-360	360	28.3612	-0.1905	-27.9896	-1.1290;
	99	110	0.05	0.174	0.022	0	0	0	0	0	1	-360	360	43.5708	-2.4615	-42.6000	3.7224;
	100	102	0.016	0.038	0.004	0	0	0	0	0	1	-360	360	36.0762	-1.1323	-35.8702	1.2187;
	102	104	0.043	0.064	0.027	0	0	0	0	0	1	-360	360	43.6722	-21.8861	-42.6720	20.6848;
	103	105	0.019	0.062	0.008	0	0	0	0	0	1	-360	360	27.0735	2.6733	-26.9401	-3.0786;
	104	108	0.076	0.13	0.044	0	0	0	0	0	1	-360	360	31.6599	-15.3246	-30.7591	12.5284;
	104	322	0.044	0.124	0.015	0	0	0	0	0	1	-360	360	2.4120	-5.3601	-2.4000	3.9000;
	105	107	0.012	0.088	0.011	0	0	0	0	0	1	-360	360	64.1795	8.3147	-63.6969	-5.9084;
	105	110	0.157	0.4	0.047	0	0	0	0	0	1	-360	360	50.6633	-4.4649	-46.7966	9.6395;
	108	324	0.074	0.208	0.026	0	0	0	0	0	1	-360	360	25.1796	-2.3618	-24.7000	1.2000;
	109	110	0.07	0.184	0.021	0	0	0	0	0	1	-360	360	-10.3570	4.0362	10.4547	-5.7702;
	109	113	0.1	0.274	0.031	0	0	0	0	0	1	-360	360	-3.7656	2.0966	3.7939	-4.9451;
	109	114	0.109	0.393	0.036	0	0	0	0	0	1	-360	360	11.4122	-5.0038	-11.2503	2.1620;
	110	112	0.142	0.404	0.05	0	0	0	0	0	1	-360	360	15.9419	-7.5918	-15.5195	4.0557;
	112	114	0.017	0.042	0.006	0	0	0	0	0	1	-360	360	-4.0805	-4.0557	4.0860	3.4988;
	115	122	0.0036	0.0199	0.004	0	0	0	0	0	1	-360	360	52.5391	-69.5946	-52.2432	70.8564;
	116	120	0.002	0.1049	0.001	0	0	0	0	0	1	-360	360	-62.6809	68.2239	62.8444	-59.7426;
	117	118	0.0001	0.0018	0.017	0	0	0	0	0	1	-360	360	-487.6721	287.3275	488.0393	-282.1971;
	118	119	0	0.0271	0	0	0	0	0	0	1	-360	360	-577.9219	-343.0603	577.9219	484.6384;
	118	1201	0	0.6163	0	0	0	0	0	0	1	-360	360	29.2830	-9.5963	-29.2830	16.3651;
	1201	120	0	-0.3697	0	0	0	0	0	0	1	-360	360	29.2830	-16.3651	-29.2830	12.3047;
	118	121	0.0022	0.2915	0	0	0	0	0	0	1	-360	360	46.4997	-15.1463	-46.4388	23.2098;
	119	120	0	0.0339	0	0	0	0	0	0	1	-360	360	710.5615	348.6987	-710.5615	-153.6569;
	119	121	0	0.0582	0	0	0	0	0	0	1	-360	360	541.1003	185.8850	-541.1003	-10.9242;
	122	123	0.0808	0.2344	0.029	0	0	0	0	0	1	-360	360	17.8274	-18.3786	-17.3090	17.0586;
	122	125	0.0965	0.3669	0.054	0	0	0	0	0	1	-360	360	15.4734	-15.8933	-15.0478	12.2008;
	123	124	0.036	0.1076	0.117	0	0	0	0	0	1	-360	360	-67.5255	-1.9059	69.1707	-5.1590;
	123	125	0.0476	0.1414	0.149	0	0	0	0	0	1	-360	360	6.8345	-16.5527	-6.7730	1.6734;
	125	126	0.0006	0.0197	0	0	0	0	0	0	1	-360	360	-492.9793	103.4258	494.4708	-54.4522;
	126	127	0.0059	0.0405	0.25	0	0	0	0	0	1	-360	360	-99.0744	-1.6615	99.6630	-19.2418;
	126	129	0.0115	0.1106	0.185	0	0	0	0	0	1	-360	360	-131.2162	9.8121	133.2471	-8.7882;
	126	132	0.0198	0.1688	0.321	0	0	0	0	0	1	-360	360	-158.3712	21.4783	163.6390	-8.7330;
	126	157	0.005	0.05	0.33	0	0	0	0	0	1	-360	360	-29.1700	13.2736	29.2570	-44.8185;
	126	158	0.0077	0.0538	0.335	0	0	0	0	0	1	-360	360	-46.4603	-11.1735	46.6296	-21.0228;
	126	169	0.0165	0.1157	0.171	0	0	0	0	0	1	-360	360	-88.0787	17.6232	89.4778	-24.6653;
	127	128	0.0059	0.0577	0.095	0	0	0	0	0	1	-360	360	-171.6723	17.6584	173.4406	-9.8871;
	127	134	0.0049	0.0336	0.208	0	0	0	0	0	1	-360	360	-137.7904	-52.8928	138.8091	38.6142;
	127	168	0.0059	0.0577	0.095	0	0	0	0	0	1	-360	360	-171.0003	17.4762	172.7545	-9.8427;
	128	130	0.0078	0.0773	0.126	0	0	0	0	0	1	-360	360	-234.7564	17.3054	239.0788	12.6627;
	128	133	0.0026	0.0193	0.03	0	0	0	0	0	1	-360	360	61.3158	-7.4182	-61.2175	5.1347;
	129	130	0.0076	0.0752	0.122	0	0	0	0	0	1	-360	360	-232.7545	16.3059	236.8877	12.1261;
	129	133	0.0021	0.0186	0.03	0	0	0	0	0	1	-360	360	99.5074	-7.5177	-99.2998	6.3424;
	130	132	0.0016	0.0164	0.026	0	0	0	0	0	1	-360	360	280.5889	67.9554	-279.3014	-57.4193;
	130	151	0.0017	0.0165	0.026	0	0	0	0	0	1	-360	360	162.1904	72.3209	-161.6707	-69.9384;
	130	167	0.0079	0.0793	0.127	0	0	0	0	0	1	-360	360	275.7719	56.4567	-269.6819	-7.9085;
	130	168	0.0078	0.0784	0.125	0	0	0	0	0	1	-360	360	236.2529	12.7881	-232.0311	16.8791;
	133	137	0.0017	0.0117	0.289	0	0	0	0	0	1	-360	360	-665.3902	-282.7278	674.1067	312.3712;
	133	168	0.0026	0.0193	0.03	0	0	0	0	0	1	-360	360	-59.1849	4.7047	59.2766	-7.0364;
	133	169	0.0021	0.0186	0.03	0	0	0	0	0	1	-360	360	120.2438	62.3915	-119.8559	-61.9249;
	133	171	0.0002	0.0101	0	0	0	0	0	0	1	-360	360	764.8486	204.1544	-763.6000	-141.1000;
	134	135	0.0043	0.0293	0.18	0	0	0	0	0	1	-360	360	-76.7491	12.2781	77.0109	-29.2455;
	134	184	0.0039	0.0381	0.258	0	0	0	0	0	1	-360	360	-62.0600	-50.8923	62.2561	25.4191;
	135	136	0.0091	0.0623	0.385	0	0	0	0	0	1	-360	360	-246.2109	-12.3545	251.5256	7.6141;
	136	137	0.0125	0.089	0.54	0	0	0	0	0	1	-360	360	63.4592	-36.2696	-62.9955	-19.6601;
	136	152	0.0056	0.039	0.953	0	0	0	0	0	1	-360	360	-370.1848	10.4554	377.3786	-65.5316;
	137	140	0.0015	0.0114	0.284	0	0	0	0	0	1	-360	360	331.2399	-15.8634	-329.7388	-3.7428;
	137	181	0.0005	0.0034	0.021	0	0	0	0	0	1	-360	360	-91.9657	-133.6012	92.0843	132.0947;
	137	186	0.0007	0.0151	0.126	0	0	0	0	0	1	-360	360	-471.0913	-94.6272	472.5574	112.2003;
	137	188	0.0005	0.0034	0.021	0	0	0	0	0	1	-360	360	-431.7875	-126.0549	432.7090	130.0045;
	139	172	0.0562	0.2248	0.081	0	0	0	0	0	1	-360	360	18.8734	-14.1105	-18.6233	6.7150;
	140	141	0.012	0.0836	0.123	0	0	0	0	0	1	-360	360	-79.1509	-2.9111	79.8436	-5.7465;
	140	142	0.0152	0.1132	0.684	0	0	0	0	0	1	-360	360	-7.3223	-10.8472	7.4269	-60.8462;
	140	145	0.0468	0.3369	0.519	0	0	0	0	0	1	-360	360	-15.9600	-14.7049	16.1483	-38.5407;
	140	146	0.043	0.3031	0.463	0	0	0	0	0	1	-360	360	-47.9318	-18.4480	48.8579	-25.8659;
	140	147	0.0489	0.3492	0.538	0	0	0	0	0	1	-360	360	-62.5464	-16.7937	64.3749	-29.2266;
	140	182	0.0013	0.0089	0.119	0	0	0	0	0	1	-360	360	154.9503	-47.2522	-154.6435	36.3874;
	141	146	0.0291	0.2267	0.342	0	0	0	0	0	1	-360	360	-35.6947	-13.7854	36.0372	-21.3884;
	142	143	0.006	0.057	0.767	0	0	0	0	0	1	-360	360	-221.5728	-53.0115	224.4397	-1.0605;
	143	145	0.0075	0.0773	0.119	0	0	0	0	0	1	-360	360	103.4312	34.9027	-102.5764	-38.6183;
	143	149	0.0127	0.0909	0.135	0	0	0	0	0	1	-360	360	-29.9225	-37.3397	30.1319	23.7092;
	145	146	0.0085	0.0588	0.087	0	0	0	0	0	1	-360	360	-148.1355	-54.1209	150.1775	59.0043;
	145	149	0.0218	0.1511	0.223	0	0	0	0	0	1	-360	360	-71.5743	-41.4731	72.8681	26.2598;
	146	147	0.0073	0.0504	0.074	0	0	0	0	0	1	-360	360	-151.0727	23.2500	152.6251	-20.7339;
	148	178	0.0523	0.1526	0.074	0	0	0	0	0	1	-360	360	95.9308	49.3563	-90.2909	-40.3076;
	148	179	0.1371	0.3919	0.076	0	0	0	0	0	1	-360	360	47.6049	6.4915	-44.6863	-5.9749;
	152	153	0.0137	0.0957	0.141	0	0	0	0	0	1	-360	360	-22.3786	6.6477	22.4663	-21.5365;
	153	161	0.0055	0.0288	0.19	0	0	0	0	0	1	-360	360	107.4069	-2.4642	-106.8210	-15.0105;
	154	156	0.1746	0.3161	0.04	0	0	0	0	0	1	-360	360	-25.9186	15.6558	27.7485	-16.0653;
	154	183	0.0804	0.3054	0.045	0	0	0	0	0	1	-360	360	-44.0814	11.5650	45.9151	-8.8255;
	155	161	0.011	0.0568	0.388	0	0	0	0	0	1	-360	360	-71.2480	-37.9695	71.8210	0.0105;
	157	159	0.0008	0.0098	0.069	0	0	0	0	0	1	-360	360	-363.1603	11.1501	364.2508	-4.4938;
	158	159	0.0029	0.0285	0.19	0	0	0	0	0	1	-360	360	-90.1044	43.2681	90.4214	-58.8751;
	158	160	0.0066	0.0448	0.277	0	0	0	0	0	1	-360	360	43.4748	-22.2453	-43.3450	-4.5308;
	162	164	0.0024	0.0326	0.236	0	0	0	0	0	1	-360	360	461.8770	14.0127	-456.6562	33.8732;
	162	165	0.0018	0.0245	1.662	0	0	0	0	0	1	-360	360	-546.8770	-38.0127	552.3846	-51.9014;
	163	164	0.0044	0.0514	3.597	0	0	0	0	0	1	-360	360	-221.6940	-46.4556	224.5843	-288.7833;
	165	166	0.0002	0.0123	0	0	0	0	0	0	1	-360	360	-552.3846	51.9014	553.0000	-14.0548;
	167	169	0.0018	0.0178	0.029	0	0	0	0	0	1	-360	360	-30.2181	-87.7915	30.3780	86.5902;
	172	173	0.0669	0.4843	0.063	0	0	0	0	0	1	-360	360	24.5771	3.2814	-24.1644	-6.6477;
	172	174	0.0558	0.221	0.031	0	0	0	0	0	1	-360	360	-32.4539	-9.9964	33.0511	8.9862;
	173	174	0.0807	0.3331	0.049	0	0	0	0	0	1	-360	360	-55.9783	-7.1807	58.6111	12.9132;
	173	175	0.0739	0.3071	0.043	0	0	0	0	0	1	-360	360	-27.3745	9.3534	28.0467	-10.6761;
	173	176	0.1799	0.5017	0.069	0	0	0	0	0	1	-360	360	-55.9827	12.7567	62.2915	-2.3208;
	175	176	0.0904	0.3626	0.048	0	0	0	0	0	1	-360	360	-58.2553	-2.9418	61.4957	11.0097;
	175	179	0.077	0.3092	0.054	0	0	0	0	0	1	-360	360	11.1085	-4.1090	-11.0062	-0.5768;
	176	177	0.0251	0.0829	0.047	0	0	0	0	0	1	-360	360	99.2128	27.0278	-96.7822	-23.9881;
	177	178	0.0222	0.0847	0.05	0	0	0	0	0	1	-360	360	152.7822	46.9790	-147.1430	-30.2104;
	178	179	0.0498	0.1855	0.029	0	0	0	0	0	1	-360	360	18.7240	-20.9780	-18.3075	19.8844;
	178	180	0.0061	0.029	0.084	0	0	0	0	0	1	-360	360	-208.6900	-82.1040	212.1224	90.6841;
	181	138	0.0004	0.0202	0	0	0	0	0	0	1	-360	360	481.3158	-5.0000	-480.4781	47.3041;
	181	187	0.0004	0.0083	0.115	0	0	0	0	0	1	-360	360	-646.8000	-127.0947	648.3654	146.6917;
	184	185	0.0025	0.0245	0.164	0	0	0	0	0	1	-360	360	-199.0561	-42.0191	200.0000	33.3459;
	186	188	0.0007	0.0086	0.115	0	0	0	0	0	1	-360	360	667.6426	101.0267	-664.8202	-79.2527;
	187	188	0.0007	0.0086	0.115	0	0	0	0	0	1	-360	360	491.8346	107.6132	-490.2613	-101.1846;
	188	138	0.0004	0.0202	0	0	0	0	0	0	1	-360	360	539.7726	6.8328	-538.7219	46.2265;
	189	208	0.033	0.095	0	0	0	0	0	0	1	-360	360	17.3331	-2.3046	-17.2328	2.5936;
	189	209	0.046	0.069	0	0	0	0	0	0	1	-360	360	-8.3937	2.6558	8.4292	-2.6026;
	190	231	0.0004	0.0022	6.2	0	0	0	0	0	1	-360	360	528.9495	-361.4617	-527.9432	-322.1605;
	190	240	0	0.0275	0	0	0	0	0	0	1	-360	360	-33.0943	120.3200	33.0943	-116.4733;
	191	192	0.003	0.048	0	0	0	0	0	0	1	-360	360	832.0001	346.5727	-809.6194	11.5175;
	192	225	0.002	0.009	0	0	0	0	0	0	1	-360	360	9.6194	-83.5175	-9.4586	84.2413;
	193	205	0.045	0.063	0	0	0	0	0	0	1	-360	360	28.5161	0.0417	-28.1487	0.4726;
	193	208	0.048	0.127	0	0	0	0	0	0	1	-360	360	-5.9811	1.3172	5.9992	-1.2693;
	194	219	0.0031	0.0286	0.5	0	0	0	0	0	1	-360	360	124.8147	-64.3145	-124.3370	13.4031;
	194	664	0.0024	0.0355	0.36	0	0	0	0	0	1	-360	360	-113.3328	43.2379	113.7000	-76.7000;
	195	219	0.0031	0.0286	0.5	0	0	0	0	0	1	-360	360	16.5727	-100.6271	-16.4071	47.5118;
	196	197	0.014	0.04	0.004	0	0	0	0	0	1	-360	360	-57.7231	-24.4711	58.3020	25.7385;
	196	210	0.03	0.081	0.01	0	0	0	0	0	1	-360	360	-13.8561	-3.1402	13.9191	2.3555;
	197	198	0.01	0.06	0.009	0	0	0	0	0	1	-360	360	-90.2366	-20.6572	91.1050	24.9609;
	197	211	0.015	0.04	0.006	0	0	0	0	0	1	-360	360	-11.0654	-19.0814	11.1378	18.6781;
	198	202	0.332	0.688	0	0	0	0	0	0	1	-360	360	11.6824	-1.5127	-11.2352	2.4394;
	198	203	0.009	0.046	0.025	0	0	0	0	0	1	-360	360	73.1646	11.4520	-72.6828	-11.5353;
	198	210	0.02	0.073	0.008	0	0	0	0	0	1	-360	360	90.5026	25.4677	-88.7825	-19.9859;
	198	211	0.034	0.109	0.032	0	0	0	0	0	1	-360	360	46.4977	-2.4744	-45.7839	1.5092;
	199	200	0.076	0.135	0.009	0	0	0	0	0	1	-360	360	-1.2781	-1.0124	1.2797	0.1942;
	199	210	0.04	0.102	0.005	0	0	0	0	0	1	-360	360	-33.7219	-10.9876	34.2723	11.9232;
	200	210	0.081	0.128	0.014	0	0	0	0	0	1	-360	360	-24.1301	-3.1542	24.6516	2.6656;
	201	204	0.124	0.183	0	0	0	0	0	0	1	-360	360	3.7268	1.3026	-3.7064	-1.2725;
	203	211	0.01	0.059	0.008	0	0	0	0	0	1	-360	360	30.6828	-2.4647	-30.5888	2.2152;
	204	205	0.046	0.068	0	0	0	0	0	0	1	-360	360	-29.6696	-6.5219	30.1241	7.1937;
	205	206	0.302	0.446	0	0	0	0	0	0	1	-360	360	-1.9754	-2.6663	2.0096	2.7169;
	206	207	0.073	0.093	0	0	0	0	0	0	1	-360	360	-9.8457	-8.1633	9.9643	8.3144;
	206	208	0.24	0.421	0	0	0	0	0	0	1	-360	360	-4.1639	3.4464	4.2336	-3.3242;
	212	215	0.0139	0.0778	0.086	0	0	0	0	0	1	-360	360	-42.7879	38.6185	43.2867	-44.4239;
	213	214	0.0025	0.038	0	0	0	0	1	0	1	-360	360	272.0000	44.1448	-270.1391	-15.8589;
	214	215	0.0017	0.0185	0.02	0	0	0	0	0	1	-360	360	251.3604	10.1697	-250.2664	-0.2215;
	214	242	0.0015	0.0108	0.002	0	0	0	0	0	1	-360	360	-3.2213	-10.3108	3.2230	10.1264;
	215	216	0.0045	0.0249	0.026	0	0	0	0	0	1	-360	360	159.9797	18.6455	-158.7780	-14.4976;
	216	217	0.004	0.0497	0.018	0	0	0	0	0	1	-360	360	-17.2220	-90.5024	17.5726	93.0642;
	217	218	0	0.0456	0	0	0	0	0	0	1	-360	360	17.1286	31.3598	-17.1286	-30.8018;
	217	219	0.0005	0.0177	0.02	0	0	0	0	0	1	-360	360	-115.9346	-192.1641	116.1741	198.4839;
	217	220	0.0027	0.0395	0.832	0	0	0	0	0	1	-360	360	-18.7666	-7.2599	18.8096	-77.7841;
	219	237	0.0003	0.0018	5.2	0	0	0	0	0	1	-360	360	-56.4909	-308.3898	56.5005	-270.9274;
	220	218	0.0037	0.0484	0.43	0	0	0	0	0	1	-360	360	32.9300	-23.0130	-32.8904	-20.1378;
	220	221	0.001	0.0295	0.503	0	0	0	0	0	1	-360	360	46.5274	0.5093	-46.4994	-50.3875;
	220	238	0.0016	0.0046	0.402	0	0	0	0	0	1	-360	360	-283.2669	36.3531	284.5813	-73.5013;
	221	223	0.0003	0.0013	1	0	0	0	0	0	1	-360	360	325.4994	140.7877	-325.0724	-238.5927;
	222	237	0.0014	0.0514	0.33	0	0	0	1	0	1	-360	360	-78.0000	-26.4901	78.0781	-7.2250;
	224	225	0.01	0.064	0.48	0	0	0	0	0	1	-360	360	-238.9146	122.6116	246.7687	-117.8012;
	224	226	0.0019	0.0081	0.86	0	0	0	0	0	1	-360	360	-37.1427	-253.4081	38.0095	169.5230;
	225	191	0.001	0.061	0	0	0	0	0	0	1	-360	360	-647.3101	-6.4400	651.9999	292.5194;
	226	231	0.0005	0.0212	0	0	0	0	0	0	1	-360	360	-38.0095	-169.5230	38.1551	175.6977;
	227	231	0.0009	0.0472	0.186	0	0	0	1	0	1	-360	360	-235.0000	-105.9427	235.5811	116.7957;
	228	229	0.0019	0.0087	1.28	0	0	0	0	0	1	-360	360	-226.1120	-104.5583	227.0276	-31.2787;
	228	231	0.0026	0.0917	0	0	0	0	0	0	1	-360	360	5.5555	-12.8367	-5.5508	13.0018;
	228	234	0.0013	0.0288	0.81	0	0	0	0	0	1	-360	360	-2.4435	-30.6050	2.4457	-57.0385;
	229	190	0	0.0626	0	0	0	0	0	0	1	-360	360	20.8552	-9.2152	-20.8552	9.5106;
	231	232	0.0002	0.0069	1.364	0	0	0	0	0	1	-360	360	552.8988	101.9911	-552.2910	-230.6821;
	231	237	0.0001	0.0006	3.57	0	0	0	0	0	1	-360	360	-452.1409	-525.2808	452.4216	129.8842;
	232	233	0.0017	0.0485	0	0	0	0	0	0	1	-360	360	104.2910	87.6821	-104.0000	-79.3802;
	234	235	0.0002	0.0259	0.144	0	0	0	0	0	1	-360	360	10.2741	109.0330	-10.2486	-120.8375;
	234	237	0.0006	0.0272	0	0	0	0	0	0	1	-360	360	13.1024	-65.6870	-13.0774	66.8182;
	235	238	0.0002	0.0006	0.8	0	0	0	0	0	1	-360	360	-258.7514	-36.1625	258.8829	-45.0119;
	241	237	0.0005	0.0154	0	0	0	0	1	0	1	-360	360	575.4300	-35.0270	-573.9228	81.4501;
	240	281	0.0003	0.0043	0.009	0	0	0	0	0	1	-360	360	-33.0943	-30.2632	33.1000	29.4000;
	242	245	0.0082	0.0851	0	0	0	0	0	0	1	-360	360	68.2535	20.8720	-67.8299	-16.4755;
	242	247	0.0112	0.0723	0	0	0	0	0	0	1	-360	360	98.5235	20.9954	-97.3708	-13.5548;
	243	244	0.0127	0.0355	0	0	0	0	0	0	1	-360	360	57.1967	30.6255	-56.6727	-29.1607;
	243	245	0.0326	0.1804	0	0	0	0	0	0	1	-360	360	18.8033	18.5795	-18.5800	-17.3438;
	244	246	0.0195	0.0551	0	0	0	0	0	0	1	-360	360	56.6727	29.1607	-55.8680	-26.8870;
	245	246	0.0157	0.0732	0	0	0	0	0	0	1	-360	360	19.5718	3.8330	-19.5056	-3.5242;
	245	247	0.036	0.2119	0	0	0	0	0	0	1	-360	360	5.8380	-0.0137	-5.8250	0.0903;
	246	247	0.0268	0.1285	0	0	0	0	0	0	1	-360	360	-1.6264	-2.5888	1.6291	2.6017;
	247	248	0.0428	0.1215	0	0	0	0	0	0	1	-360	360	40.5668	-19.1371	-39.6499	21.7400;
	248	249	0.0351	0.1004	0	0	0	0	0	0	1	-360	360	6.5002	-1.4946	-6.4838	1.5414;
	249	250	0.0616	0.1857	0	0	0	0	0	0	1	-360	360	-22.5162	-15.5414	23.0000	17.0000;
	3	1	0	0.052	0	0	0	0	0.947	0	1	-360	360	25.0899	49.0603	-25.0899	-47.6346;
	3	2	0	0.052	0	0	0	0	0.956	0	1	-360	360	-39.8870	15.1716	39.8870	-14.3002;
	3	4	0	0.005	0	0	0	0	0.971	0	1	-360	360	712.0231	-63.4892	-712.0231	87.7436;
	7	5	0	0.039	0	0	0	0	0.948	0	1	-360	360	71.8670	77.7286	-71.8670	-73.7451;
	7	6	0	0.039	0	0	0	0	0.959	0	1	-360	360	-38.4027	12.3092	38.4027	-11.7176;
	10	11	0	0.089	0	0	0	0	1.046	0	1	-360	360	-21.5377	-32.8015	21.5377	34.2420;
	12	10	0	0.053	0	0	0	0	0.985	0	1	-360	360	131.4623	-10.8018	-131.4623	19.8015;
	15	17	0.0194	0.0311	0	0	0	0	0.9561	0	1	-360	360	241.8379	-81.8081	-231.0000	99.1823;
	16	15	0.001	0.038	0	0	0	0	0.971	0	1	-360	360	301.7969	85.5244	-300.9222	-52.2855;
	21	20	0	0.014	0	0	0	0	0.952	0	1	-360	360	521.0249	189.2708	-521.0249	-148.2458;
	24	23	0	0.064	0	0	0	0	0.943	0	1	-360	360	63.6022	28.2938	-63.6022	-25.5663;
	36	35	0	0.047	0	0	0	0	1.01	0	1	-360	360	113.6105	35.2913	-113.6105	-28.5073;
	45	44	0	0.02	0	0	0	0	1.008	0	1	-360	360	244.8916	32.1482	-244.8916	-20.2161;
	45	46	0	0.021	0	0	0	0	1	0	1	-360	360	-263.2222	-55.0418	263.2222	69.6585;
	62	61	0	0.059	0	0	0	0	0.975	0	1	-360	360	72.6166	91.3986	-72.6166	-83.9796;
	63	64	0	0.038	0	0	0	0	1.017	0	1	-360	360	-190.7068	-6.6696	190.7068	22.3171;
	73	74	0	0.0244	0	0	0	0	1	0	1	-360	360	-264.1220	-65.6510	264.1220	84.6067;
	81	88	0	0.02	0	0	0	0	1	0	1	-360	360	193.4282	101.3194	-193.4282	-92.3822;
	85	99	0	0.048	0	0	0	0	1	0	1	-360	360	92.9527	-2.6289	-92.9527	6.8898;
	86	102	0	0.048	0	0	0	0	1	0	1	-360	360	37.7926	-20.2405	-37.7926	21.1395;
	87	94	0	0.046	0	0	0	0	1.015	0	1	-360	360	61.1940	-32.5346	-61.1940	34.8493;
	114	207	0	0.149	0	0	0	0	0.967	0	1	-360	360	-11.0357	-5.6608	11.0357	5.8856;
	116	124	0.0052	0.0174	0	0	0	0	1.01	0	1	-360	360	62.6809	-68.2239	-62.2474	69.6744;
	121	115	0	0.028	0	0	0	0	1.05	0	1	-360	360	52.5391	-67.2857	-52.5391	69.5946;
	122	157	0.0005	0.0195	0	0	0	0	1	0	1	-360	360	-210.1575	-48.3845	210.4033	57.9684;
	130	131	0	0.018	0	0	0	0	1.0522	0	1	-360	360	-46.0110	-93.6775	46.0110	95.7685;
	130	150	0	0.014	0	0	0	0	1.0522	0	1	-360	360	-92.7596	-125.1653	92.7596	128.7891;
	132	170	0.001	0.0402	0	0	0	0	1.05	0	1	-360	360	115.6624	66.1523	-115.4683	-58.3505;
	141	174	0.0024	0.0603	0	0	0	0	0.975	0	1	-360	360	91.8512	26.6460	-91.6622	-21.8994;
	142	175	0.0024	0.0498	-0.087	0	0	0	1	0	1	-360	360	157.6459	89.3577	-156.8999	-65.2730;
	143	144	0	0.0833	0	0	0	0	1.035	0	1	-360	360	101.4443	-4.1724	-101.4443	12.6199;
	143	148	0.0013	0.0371	0	0	0	0	0.9565	0	1	-360	360	207.1073	97.1611	-206.5357	-80.8479;
	145	180	0.0005	0.0182	0	0	0	0	1	0	1	-360	360	282.1380	158.7531	-281.6224	-139.9841;
	151	170	0.001	0.0392	0	0	0	0	1.05	0	1	-360	360	161.6707	69.9384	-161.3317	-56.6495;
	153	183	0.0027	0.0639	0	0	0	0	1.073	0	1	-360	360	86.1268	0.1863	-85.9151	4.8255;
	155	156	0.0008	0.0256	0	0	0	0	1.05	0	1	-360	360	102.8427	21.9481	-102.7485	-18.9347;
	159	117	0	0.016	0	0	0	0	1.0506	0	1	-360	360	-487.6721	46.8689	487.6721	-3.3224;
	160	124	0.0012	0.0396	0	0	0	0	0.975	0	1	-360	360	43.3450	4.5308	-43.3233	-3.8155;
	163	137	0.0013	0.0384	-0.057	0	0	0	0.98	0	1	-360	360	221.6940	46.0556	-221.1066	-22.3645;
	164	155	0.0009	0.0231	-0.033	0	0	0	0.956	0	1	-360	360	232.0719	49.6819	-231.5947	-33.9787;
	182	139	0.0003	0.0131	0	0	0	0	1.05	0	1	-360	360	-86.0565	-125.3874	86.1266	128.4484;
	189	210	0	0.252	0	0	0	0	1.03	0	1	-360	360	-15.9394	-2.3512	15.9394	3.0416;
	193	196	0	0.237	0	0	0	0	1.03	0	1	-360	360	-22.5350	-1.3589	22.5350	2.6454;
	195	212	0.0008	0.0366	0	0	0	0	0.985	0	1	-360	360	84.9704	108.9796	-84.8321	-102.6540;
	200	248	0	0.22	0	0	0	0	1	0	1	-360	360	-4.1497	-9.0400	4.1497	9.2781;
	201	69	0	0.098	0	0	0	0	1.03	0	1	-360	360	-44.7268	-15.3026	44.7268	17.7535;
	202	211	0	0.128	0	0	0	0	1.01	0	1	-360	360	-26.7648	-15.4394	26.7648	16.7098;
	204	2040	0.02	0.204	-0.012	0	0	0	1.05	0	1	-360	360	-38.6240	-16.2056	39.0421	21.5427;
	209	198	0.026	0.211	0	0	0	0	1.03	0	1	-360	360	-46.4292	-10.3974	47.0478	15.4177;
	211	212	0.003	0.0122	0	0	0	0	1	0	1	-360	360	-127.0239	-61.6115	127.6200	64.0355;
	218	219	0.001	0.0354	-0.01	0	0	0	0.97	0	1	-360	360	-80.9809	-45.0604	81.0610	48.9909;
	223	224	0.0012	0.0195	-0.364	0	0	0	1	0	1	-360	360	-102.9276	6.5927	103.0572	31.7966;
	229	230	0.001	0.0332	0	0	0	0	1.02	0	1	-360	360	-343.8828	-5.5061	345.0000	42.5982;
	234	236	0.0005	0.016	0	0	0	0	1.07	0	1	-360	360	-597.8221	-230.3075	600.0000	300.0000;
	238	239	0.0005	0.016	0	0	0	0	1.02	0	1	-360	360	-548.4641	-19.2365	550.0000	68.3848;
	196	2040	0.0001	0.02	0	0	0	0	1	0	1	-360	360	39.0442	21.9659	-39.0421	-21.5427;
	119	1190	0.001	0.023	0	0	0	0	1.0223	0	1	-360	360	100.4164	31.6166	-100.3100	-29.1700;
	120	1200	0	0.023	0	0	0	0	0.9284	0	1	-360	360	-100.0000	36.6175	100.0000	-34.1700;
	7002	2	0.001	0.0146	0	0	0	0	1	0	1	-360	360	623.0000	95.1811	-619.4022	-42.6529;
	7003	3	0	0.01054	0	0	0	0	1	0	1	-360	360	1210.0000	420.0000	-1210.0000	-257.5889;
	7061	61	0	0.0238	0	0	0	0	1	0	1	-360	360	400.0000	123.1985	-400.0000	-82.6894;
	7062	62	0	0.03214	0	0	0	0	0.95	0	1	-360	360	400.0000	150.0000	-400.0000	-97.1384;
	7166	166	0	0.0154	0	0	0	0	1	0	1	-360	360	553.0000	136.9438	-553.0000	-88.3798;
	7024	24	0	0.0289	0	0	0	0	1	0	1	-360	360	410.0000	107.0951	-410.0000	-58.0835;
	7001	1	0	0.01953	0	0	0	0	1	0	1	-360	360	467.0000	140.7286	-467.0000	-98.6436;
	7130	130	0	0.0193	0	0	0	0	1	0	1	-360	360	1292.0000	325.8568	-1292.0000	-15.4670;
	7011	11	0	0.01923	0	0	0	0	1	0	1	-360	360	234.0000	52.7206	-234.0000	-41.9706;
	7023	23	0	0.023	0	0	0	0	1	0	1	-360	360	185.0000	6.6332	-185.0000	0.5063;
	7049	49	0	0.0124	0	0	0	0	1	0	1	-360	360	455.9465	10.0000	-455.9465	14.3728;
	7139	139	0	0.0167	0	0	0	0	1	0	1	-360	360	700.0000	283.9587	-700.0000	-197.6379;
	7012	12	0	0.0312	0	0	0	0	1	0	1	-360	360	372.0000	201.2918	-372.0000	-150.7310;
	7017	17	0	0.01654	0	0	0	0	0.942	0	1	-360	360	330.0000	350.0000	-330.0000	-319.1823;
	7039	39	0	0.03159	0	0	0	0	0.965	0	1	-360	360	500.0000	161.5395	-500.0000	-87.8706;
	7057	57	0	0.05347	0	0	0	0	0.95	0	1	-360	360	165.0000	90.0000	-165.0000	-73.5812;
	7044	44	0	0.18181	0	0	0	0	0.942	0	1	-360	360	37.0000	42.0000	-37.0000	-37.0718;
	7055	55	0	0.19607	0	0	0	0	0.942	0	1	-360	360	45.0000	25.0000	-45.0000	-20.3108;
	7071	71	0	0.06896	0	0	0	0	0.9565	0	1	-360	360	116.0000	87.0000	-116.0000	-73.4229;
];

%%-----  OPF Data  -----%%
%% generator cost data
%	1	startup	shutdown	n	x1	y1	...	xn	yn
%	2	startup	shutdown	n	c(n-1)	...	c0
mpc.gencost = [
	2	0	0	3	0.01	40	0;
	2	0	0	3	0.01	40	0;
	2	0	0	3	0.01	40	0;
	2	0	0	3	0.01	40	0;
	2	0	0	3	0.01	40	0;
	2	0	0	3	0.0266666667	20	0;
	2	0	0	3	0.064516129	20	0;
	2	0	0	3	0.0344827586	20	0;
	2	0	0	3	0.147058824	20	0;
	2	0	0	3	0.0854700855	20	0;
	2	0	0	3	0.00518134715	20	0;
	2	0	0	3	0.0416666667	20	0;
	2	0	0	3	0.01	40	0;
	2	0	0	3	0.01	40	0;
	2	0	0	3	0.0355871886	20	0;
	2	0	0	3	0.0143678161	20	0;
	2	0	0	3	0.119047619	20	0;
	2	0	0	3	0.0460829493	20	0;
	2	0	0	3	0.0970873786	20	0;
	2	0	0	3	0.0268817204	20	0;
	2	0	0	3	0.0462962963	20	0;
	2	0	0	3	0.01	40	0;
	2	0	0	3	0.0487804878	20	0;
	2	0	0	3	0.01	40	0;
	2	0	0	3	0.0438596491	20	0;
	2	0	0	3	0.119047619	20	0;
	2	0	0	3	0.05	20	0;
	2	0	0	3	0.00833333333	20	0;
	2	0	0	3	0.00833333333	20	0;
	2	0	0	3	0.0210526316	20	0;
	2	0	0	3	0.00506842372	20	0;
	2	0	0	3	0.0235849057	20	0;
	2	0	0	3	0.0367647059	20	0;
	2	0	0	3	0.1	20	0;
	2	0	0	3	0.0222222222	20	0;
	2	0	0	3	0.04	20	0;
	2	0	0	3	0.0330033003	20	0;
	2	0	0	3	0.0289855072	20	0;
	2	0	0	3	0.0333333333	20	0;
	2	0	0	3	0.0166666667	20	0;
	2	0	0	3	0.04	20	0;
	2	0	0	3	0.0181818182	20	0;
	2	0	0	3	0.0173783084	20	0;
	2	0	0	3	0.0588235294	20	0;
	2	0	0	3	0.119047619	20	0;
	2	0	0	3	0.0214132762	20	0;
	2	0	0	3	0.0160513644	20	0;
	2	0	0	3	0.00826446281	20	0;
	2	0	0	3	0.0427350427	20	0;
	2	0	0	3	0.0268817204	20	0;
	2	0	0	3	0.0303030303	20	0;
	2	0	0	3	0.0540540541	20	0;
	2	0	0	3	0.0243902439	20	0;
	2	0	0	3	0.02	20	0;
	2	0	0	3	0.27027027	20	0;
	2	0	0	3	0.01	40	0;
	2	0	0	3	0.222222222	20	0;
	2	0	0	3	0.0606060606	20	0;
	2	0	0	3	0.025	20	0;
	2	0	0	3	0.025	20	0;
	2	0	0	3	0.0862068966	20	0;
	2	0	0	3	0.00773993808	20	0;
	2	0	0	3	0.0142857143	20	0;
	2	0	0	3	0.0180831826	20	0;
	2	0	0	3	0.01	40	0;
	2	0	0	3	0.01	40	0;
	2	0	0	3	0.01	40	0;
	2	0	0	3	0.2	20	0;
	2	0	0	3	1.25	20	0;
];
